*NODE
1, 0, -0.025, 0.01
2, 0, -0.025, -0.01
3, 0, 0.025, 0.01
4, 0, 0.025, -0.01
5, 0.5, -0.025, 0.01
6, 0.5, -0.025, -0.01
7, 0.5, 0.025, 0.01
8, 0.5, 0.025, -0.01

*ELEMENT, TYPE=C3D8, ELSET=hexa8
3, 3, 1, 2, 4, 7, 5, 6, 8

*ELSET, ELSET=bulk
hexa8

*MATERIAL, NAME=bulk
*ELASTIC
1, 0.25

*SOLID SECTION, ELSET=bulk, MATERIAL=bulk

*BOUNDARY
1, 1, 1, 0
1, 2, 2, 0
1, 3, 3, 0
2, 1, 1, 0
2, 2, 2, 0
2, 3, 3, 0
3, 1, 1, 0
3, 2, 2, 0
3, 3, 3, 0
4, 1, 1, 0
4, 2, 2, 0
4, 3, 3, 0

*STEP, NLGEOM
*EL FILE
E, S
*NODE FILE
U

*STATIC
1.0, 1.0, 0.01, 1.0

*CLOAD
5, 3, 1.25e-05
6, 3, 1.25e-05
7, 3, 1.25e-05
8, 3, 1.25e-05

*END STEP
